OPT_V8/My_Campus_24/powerflow_results_t7.txt
Pandapower Network Debug Info
==================================================

BUS:
       vm_pu  va_degree      p_mw    q_mvar
0   0.993248   0.087701  0.001168  0.000857
1   0.988953   0.153999  0.001668  0.001725
2   0.985143   0.233651  0.001853  0.002942
3   0.989795   0.140845  0.002520  0.003331
4   0.989959   0.132812  0.003256  0.004020
5   0.991476   0.160986  0.003896  0.006318
6   0.989922   0.175518  0.000960  0.001035
7   0.997618   0.028490  0.001631  0.001979
8   0.997815   0.028226  0.002425  0.003162
9   0.999884   0.000616  0.009848  0.011519
10  0.999871   0.000614  0.012842  0.009414
11  0.999862   0.000628  0.011292  0.009287
12  0.999762   0.000980  0.011907  0.006837
13  0.999734   0.001137  0.011574  0.011733
14  0.999745   0.001062  0.014602  0.009732
15  0.999929   0.000452  0.000000  0.000000
16  0.999929   0.000457  0.000000  0.000000
17  0.999768   0.001028  0.000000  0.000000
18  0.999768   0.001038  0.000000  0.000000
19  1.000000   0.000000 -0.041324 -0.044162
20  1.000000   0.000006  0.000000  0.000000
21  1.000000   0.000000 -0.050400 -0.049917
22  1.000000   0.000007  0.000000  0.000000
--------------------------------------------------

LINE:
    p_from_mw  q_from_mvar   p_to_mw  q_to_mvar         pl_mw       ql_mvar  i_from_ka   i_to_ka      i_ka  vm_from_pu  va_from_degree  vm_to_pu  va_to_degree  loading_percent
0    0.041314     0.040162 -0.041311  -0.040159  3.247249e-06  2.531934e-06   0.002218  0.002218  0.002218    1.000000        0.000006  0.999929      0.000452         0.964227
1    0.050390     0.045917 -0.050378  -0.045907  1.250125e-05  9.747434e-06   0.002624  0.002624  0.002624    1.000000        0.000007  0.999768      0.001028         1.140858
2    0.033985     0.030222 -0.033983  -0.030220  1.599624e-06  1.247253e-06   0.001751  0.001751  0.001751    0.999929        0.000452  0.999884      0.000616         0.761132
3    0.011907     0.006837 -0.011907  -0.006837  6.522660e-08  5.085825e-08   0.000529  0.000529  0.000529    0.999768        0.001028  0.999762      0.000980         0.229830
4    0.026177     0.021466 -0.026177  -0.021466  6.269421e-07  4.888371e-07   0.001303  0.001303  0.001303    0.999768        0.001028  0.999745      0.001062         0.566660
5    0.007316     0.008938 -0.007254  -0.008889  6.240795e-05  4.866051e-05   0.016673  0.016673  0.016673    0.999929        0.000457  0.993248      0.087701         7.249003
6    0.004919     0.007402 -0.004858  -0.007354  6.130997e-05  4.780440e-05   0.012831  0.012831  0.012831    0.999768        0.001038  0.991476      0.160986         5.578756
7    0.001636     0.001983 -0.001631  -0.001979  4.466176e-06  3.482351e-06   0.003711  0.003711  0.003711    0.999768        0.001038  0.997618      0.028490         1.613513
8    0.005728     0.007220 -0.005714  -0.007208  1.461016e-05  1.139178e-05   0.013305  0.013305  0.013305    0.999768        0.001038  0.997815      0.028226         5.784872
9   -0.024135    -0.018701  0.024135   0.018701  3.224603e-07  2.514276e-07   0.001175  0.001175  0.001175    0.999871        0.000614  0.999884      0.000616         0.511013
10  -0.011292    -0.009287  0.011292   0.009287  1.045713e-07  8.153595e-08   0.000563  0.000563  0.000563    0.999862        0.000628  0.999871      0.000614         0.244705
11   0.011575     0.011733 -0.011574  -0.011733  1.329202e-07  1.036401e-07   0.000635  0.000635  0.000635    0.999745        0.001062  0.999734      0.001137         0.275887
12  -0.003533    -0.004676  0.003554   0.004692  2.077668e-05  1.619992e-05   0.008554  0.008554  0.008554    0.988953        0.153999  0.993248      0.087701         3.718916
13  -0.002520    -0.003331  0.002532   0.003340  1.189052e-05  9.271231e-06   0.006091  0.006091  0.006091    0.989795        0.140845  0.993248      0.087701         2.648294
14  -0.001853    -0.002942  0.001865   0.002951  1.127158e-05  8.788636e-06   0.005095  0.005095  0.005095    0.985143        0.233651  0.988953      0.153999         2.215221
15   0.003289     0.004046 -0.003256  -0.004020  3.322801e-05  2.590843e-05   0.007543  0.007543  0.007543    0.997815        0.028226  0.989959      0.132812         3.279460
16  -0.000960    -0.001035  0.000962   0.001036  1.770016e-06  1.380111e-06   0.002058  0.002058  0.002058    0.989922        0.175518  0.991476      0.160986         0.894799
--------------------------------------------------

TRAFO:
    p_hv_mw  q_hv_mvar   p_lv_mw  q_lv_mvar    pl_mw   ql_mvar   i_hv_ka   i_lv_ka  vm_hv_pu  va_hv_degree  vm_lv_pu  va_lv_degree  loading_percent
0  0.007326   0.009938 -0.007316  -0.008938  0.00001  0.001000  0.000475  0.016673  0.999929      0.000452  0.999929      0.000457         0.123471
1  0.012293   0.017604 -0.012283  -0.016605  0.00001  0.000999  0.000827  0.029818  0.999768      0.001028  0.999768      0.001038         0.214764
2  0.041324   0.044162 -0.041314  -0.040162  0.00001  0.004000  0.000499  0.002218  1.000000      0.000000  1.000000      0.000006         0.151203
3  0.050400   0.049917 -0.050390  -0.045917  0.00001  0.004000  0.000585  0.002624  1.000000      0.000000  1.000000      0.000007         0.177339
--------------------------------------------------
